generators/autotest/test_inverter_PI_deltamode_opt.glm
clock {
	timezone "PST+8PDT";
	starttime '2001-01-01 12:00:00 PST';
	stoptime '2001-01-01 12:00:10 PST';
}

#set suppress_repeat_messages=1
#set profiler=1
//#set pauseatexit=1
#define rotor_convergence=0.0000000001
#set double_format=%+.12lg
#set complex_format=%+.12lg%+.12lg%c

//Deltamode declarations - global values
#set deltamode_timestep=100000000		//100 ms
#set deltamode_maximumtime=60000000000	//1 minute
#set deltamode_iteration_limit=10		//Iteration limit

module assert;
module tape;
module reliability {
	enable_subsecond_models true;
	maximum_event_length 1800000;	//Maximum length of events in seconds (manual events are excluded from this limit)
	report_event_log false;
}

module powerflow {
	enable_subsecond_models true;
	deltamode_timestep 10.0 ms;	//10 ms
	solver_method NR;
	all_powerflow_delta true;
};

module generators {
	enable_subsecond_models true;
	deltamode_timestep 10 ms;
}


//Phase Conductor for 1 thru 8: 336,400 26/7 ACSR
object overhead_line_conductor {
	name olc10001;
	geometric_mean_radius 0.0244  ;
	resistance 0.30600;
}

//Phase Conductor for neutral: 4/0 6/1 ACSR
object overhead_line_conductor {
	name olc10002;
	geometric_mean_radius 0.008140  ;
	resistance 0.59200;
}

// Overhead line configurations
// ABCN
object line_spacing{
	name ls5001;
	distance_AB 2.5;
	distance_AC 7.0;
	distance_BC 4.5;
	distance_AN 5.656854;
	distance_BN 4.272002;
	distance_CN 5.0;
}

object line_configuration {
	name lc1001;
	conductor_A olc10001;
	conductor_B olc10001;
	conductor_C olc10001;
	conductor_N olc10002;
	spacing ls5001;
}


//Define line objects 
object overhead_line  {
     phases "ABCN";
     name n149-1;
     from node149;
     to load1;
     length 400;
     configuration lc1001;
}

object overhead_line  {
     phases "ABCN";
     name n1-67;
     from load1;
	 to m1369;
     length 400;
     configuration lc1001;
}

object meter {
	phases ABCN;
	name node149;
	bustype SWING;
	nominal_voltage 2401.7771;
	object player {
		property voltage_A;
		file ../data_inv_voltage_player_A_test.csv;
		flags DELTAMODE;
	};
	object player {
		property voltage_B;
		file ../data_inv_voltage_player_B_test.csv;
		flags DELTAMODE;
	};
	object player {
		property voltage_C;
		file ../data_inv_voltage_player_C_test.csv;
		flags DELTAMODE;
	};
}

object meter {
	phases "ABCN";
	name m1369;
	flags DELTAMODE;
	nominal_voltage 2401.7771;
	object complex_assert {
		flags DELTAMODE;
		target measured_current_A;
		within 0.05;
		object player {
			flags DELTAMODE;
			property value;
			file ../data_PI_inverter_current_A.csv;
		};
	};
	object complex_assert {
		flags DELTAMODE;
		target measured_current_B;
		within 0.05;
		object player {
			flags DELTAMODE;
			property value;
			file ../data_PI_inverter_current_B.csv;
		};
	};
	object complex_assert {
		flags DELTAMODE;
		target measured_current_C;
		within 0.05;
		object player {
			flags DELTAMODE;
			property value;
			file ../data_PI_inverter_current_C.csv;
		};
	};
}


// object recorder {
	// parent m1369;
	// property "measured_current_A.real,measured_current_A.imag";
	// interval 1;
	// flags DELTAMODE;
	// file data_PI_inverter_current_A.csv;
// };
// object recorder {
	// parent m1369;
	// property "measured_current_B.real,measured_current_B.imag";
	// interval 1;
	// flags DELTAMODE;
	// file data_PI_inverter_current_B.csv;
// };
// object recorder {
	// parent m1369;
	// property "measured_current_C.real,measured_current_C.imag";
	// interval 1;
	// flags DELTAMODE;
	// file data_PI_inverter_current_C.csv;
// };

object inverter {
	name trip_shad_inv;
	phases "ABC";
	parent m1369;
	rated_power 350 kVA;
	inverter_type FOUR_QUADRANT;
	four_quadrant_control_mode CONSTANT_PF;
	generator_status ONLINE;
	generator_mode SUPPLY_DRIVEN;
	flags DELTAMODE;
	dynamic_model_mode PI;
	inverter_convergence_criterion 0.001;
	//Arbitrary values -- the response is a little odd
	kpd 0.000001;
	kid 0.01;
	kpq 0.000001;
	kiq 0.01;
};

object solar {
	name trip_shad_solar1;
	phases AS;
	parent trip_shad_inv;
	rated_power 550 kW;
	tilt_angle 45.0;
	efficiency 0.135;
	orientation_azimuth 180.0;
	orientation FIXED_AXIS;
	SOLAR_POWER_MODEL DEFAULT;
	SOLAR_TILT_MODEL PLAYERVALUE;
	Insolation 92.902;
	ambient_temperature 35.962;
	wind_speed 4.25018;
}

 
object load {
     name load1;
     phases "ABCN";
     flags DELTAMODE;
	 voltage_A 2401.7771;
     voltage_B -1200.8886-2080.000j;
     voltage_C -1200.8886+2080.000j;
     constant_power_A 40000+20000j;
	 constant_power_B 39000+21000j;
	 constant_power_C 41000+19000j;
     nominal_voltage 2401.7771;
}
 

